66
5287993
O         -0.68370       -1.20720       -1.07150
O          2.54930       -0.55250        0.69880
O         -2.76690       -0.12180       -1.13570
O          4.51990       -0.11880        1.94100
O         -3.33140        1.47180       -3.42390
O          0.65150        1.69270        1.64720
O         -1.65350        2.13680        0.23540
O         -5.63430       -1.34200       -3.02180
O          1.10260       -0.47110        3.40890
O          2.72590       -0.54940        5.68630
O          5.21100        0.91970        5.44650
O         -5.15180        1.44360       -0.73000
O          0.71240       -3.31320       -2.18300
O         -5.44940        1.86730       -4.31140
O         -2.77710        0.14520       -6.05100
O          7.10970        1.11960        1.58880
C          1.12440       -0.49490        0.43220
C          0.47680        0.93200        0.45350
C         -1.05850        0.83890        0.26710
C          0.75200       -1.21150       -0.90560
C         -1.34800        0.06840       -1.03630
C         -3.37090       -0.68770       -2.31800
C          3.08010       -0.00260        1.92770
C         -4.90140       -0.58150       -2.06370
C         -2.98860        0.08420       -3.61870
C          2.51350       -0.60920        3.25040
C          3.15500        0.08180        4.47990
C          4.70210        0.09350        4.39940
C         -5.37960        0.90160       -2.03190
C          5.19040        0.60140        3.00930
C          1.18200       -2.69690       -0.98610
C         -4.69840        1.80460       -3.10460
C         -3.42200       -0.52730       -4.97390
C          6.72070        0.51980        2.82070
H          0.62530       -1.11480        1.17680
H          0.92810        1.52480       -0.34880
H         -1.49160        0.30130        1.11650
H          1.21650       -0.68780       -1.74780
H         -0.97860        0.71080       -1.83850
H         -3.07900       -1.73980       -2.39050
H          2.90550        1.07170        1.88080
H         -5.13850       -1.06290       -1.10960
H         -1.90230        0.05170       -3.70960
H          2.73940       -1.67900        3.25280
H          2.79770        1.11670        4.51860
H          5.06930       -0.92380        4.55980
H         -6.46430        0.94100       -2.16410
H          4.94070        1.66620        2.93090
H          2.26980       -2.78530       -0.96680
H          0.77540       -3.25960       -0.14270
H         -4.67630        2.83330       -2.73610
H         -4.49610       -0.45800       -5.13400
H         -3.13580       -1.58080       -5.01440
H          0.36760        2.60420        1.42270
H         -2.62100        1.98100        0.23710
H          7.05940       -0.51780        2.83110
H          7.23110        1.05960        3.62200
H         -6.57370       -1.27420       -2.74920
H          0.85650       -1.04160        4.16630
H          1.74830       -0.46540        5.68930
H          4.81400        0.56850        6.27150
H         -5.69920        0.89820       -0.12460
H          0.97330       -4.25560       -2.10970
H         -4.97950        2.53780       -4.85260
H         -3.03530       -0.35230       -6.85440
H          8.08960        1.09660        1.59110
